Version 4
SHEET 1 880 680
WIRE 416 -64 208 -64
WIRE 416 32 416 -64
WIRE 208 48 208 16
WIRE 208 80 208 48
WIRE -32 160 -64 160
WIRE 96 160 48 160
WIRE 160 160 96 160
WIRE -64 192 -64 160
WIRE 208 256 208 176
WIRE -64 304 -64 272
WIRE 208 304 208 256
WIRE 208 304 -64 304
WIRE 416 304 416 112
WIRE 416 304 208 304
WIRE -64 352 -64 304
FLAG -64 352 0
FLAG 208 48 D
FLAG 208 256 S
FLAG 96 160 G
SYMBOL voltage -64 176 R0
WINDOW 123 0 0 Left 2
WINDOW 39 0 0 Left 2
SYMATTR InstName V1
SYMATTR Value {X}
SYMBOL res 192 -80 R0
SYMATTR InstName R1
SYMATTR Value 1k
SYMBOL voltage 416 16 R0
WINDOW 123 0 0 Left 2
WINDOW 39 0 0 Left 2
SYMATTR InstName V2
SYMATTR Value SINE(200 200 1)
SYMBOL res 64 144 R90
WINDOW 0 0 56 VBottom 2
WINDOW 3 32 56 VTop 2
SYMATTR InstName R2
SYMATTR Value 1k
SYMBOL nmos 160 80 R0
SYMATTR InstName M1
TEXT -96 376 Left 2 !.tran 0 10 5 10m
TEXT -56 456 Left 2 !.step param X 10 100 10
