Version 4
SHEET 1 944 680
WIRE 32 -96 -208 -96
WIRE 384 -96 32 -96
WIRE 32 -48 32 -96
WIRE 384 -48 384 -96
WIRE -208 64 -208 -96
WIRE 128 64 112 64
WIRE 384 64 384 32
WIRE 384 64 128 64
WIRE 384 96 384 64
WIRE 672 96 672 64
WIRE 704 96 672 96
WIRE 704 112 704 96
WIRE 112 128 112 64
WIRE 160 128 112 128
WIRE 288 144 224 144
WIRE 320 144 288 144
WIRE 672 144 672 96
WIRE 32 160 32 32
WIRE 80 160 32 160
WIRE 160 160 80 160
WIRE 384 208 384 192
WIRE 32 224 32 160
WIRE 384 240 384 208
WIRE -208 368 -208 144
WIRE 16 368 -208 368
WIRE 32 368 32 304
WIRE 32 368 16 368
WIRE 384 368 384 320
WIRE 384 368 32 368
WIRE 16 448 16 368
FLAG 16 448 0
FLAG 672 -16 Vcc
FLAG 672 224 Vee
FLAG 704 112 0
FLAG 192 112 Vcc
FLAG 192 176 Vee
FLAG 80 160 V+
FLAG 128 64 V-
FLAG 288 144 B
FLAG 384 208 C
FLAG 384 64 E
SYMBOL Opamps\\UniversalOpamp2 192 144 R0
SYMATTR InstName U1
SYMBOL res 16 -64 R0
SYMATTR InstName R1
SYMATTR Value 1K
SYMBOL res 16 208 R0
SYMATTR InstName R2
SYMATTR Value 1K
SYMBOL res 368 -64 R0
SYMATTR InstName R3
SYMATTR Value {Y}
SYMBOL res 368 224 R0
SYMATTR InstName R4
SYMATTR Value {X}
SYMBOL pnp 320 192 M180
SYMATTR InstName Q1
SYMBOL voltage -208 48 R0
WINDOW 123 0 0 Left 2
WINDOW 39 0 0 Left 2
SYMATTR InstName V1
SYMATTR Value 10
SYMBOL voltage 672 -32 R0
WINDOW 123 0 0 Left 2
WINDOW 39 0 0 Left 2
SYMATTR InstName V2
SYMATTR Value 15
SYMBOL voltage 672 240 R180
WINDOW 0 24 96 Left 2
WINDOW 3 24 16 Left 2
WINDOW 123 0 0 Left 2
WINDOW 39 0 0 Left 2
SYMATTR InstName V3
SYMATTR Value -15
TEXT -240 472 Left 2 !.op
TEXT 160 464 Left 2 !.step param X 10 15000 1000
TEXT 592 448 Left 2 !.step param Y 1 10000 1000
